.MODEL QMPSA56 pnp
+IS=9.62586e-12 BF=246.647 NF=1.19008 VAF=19.1507
+IKF=0.332189 ISE=1.74278e-11 NE=1.95504 BR=0.1
+NR=1.49124 VAR=3.92539 IKR=4.71144 ISC=3.90265e-13
+NC=3.98982 RB=0.772559 IRB=0.184627 RBM=0.365314
+RE=0.00202964 RC=0.26419 XTB=0.467199 XTI=1
+EG=0.851752 CJE=4.05433e-11 VJE=0.4 MJE=0.748564
+TF=7.64992e-10 XTF=4.80943 VTF=12.6194 ITF=0.441135
+CJC=4.21506e-11 VJC=0.4 MJC=0.352218 XCJC=0.899996
+FC=0.180025 CJS=0 VJS=0.75 MJS=0.5
+TR=1e-07 PTF=0 KF=0 AF=1
